@<TRIPOS>MOLECULE
DCE
    8     7     1     0     0
SMALL
bcc


@<TRIPOS>ATOM
      1 H01        29.6360  104.1110   31.5300 h1      600 DCE      0.079700
      2 H02        28.0950  105.9640   29.6610 h1      600 DCE      0.079700
      3 H03        29.3950  105.7980   31.8530 h1      600 DCE      0.079700
      4 H04        28.2940  104.1800   29.5060 h1      600 DCE      0.079700
      5 CL1        26.7460  104.7550   31.1500 cl      600 DCE     -0.181400
      6  C1        28.1950  105.0190   30.1940 c3      600 DCE      0.022000
      7  C2        29.4520  105.0690   31.0440 c3      600 DCE      0.022000
      8 CL2        30.6940  105.4300   29.8830 cl      600 DCE     -0.181400
@<TRIPOS>BOND
     1     1     7 1   
     2     2     6 1   
     3     3     7 1   
     4     4     6 1   
     5     5     6 1   
     6     6     7 1   
     7     7     8 1   
@<TRIPOS>SUBSTRUCTURE
     1 DCE         1 TEMP              0 ****  ****    0 ROOT
