@<TRIPOS>MOLECULE
LIG
   26    27     1     0     0
SMALL
bcc


@<TRIPOS>ATOM
      1   C        -2.8210   18.8180   11.0020 ca        1 LIG     -0.219000
      2  C1        -1.7410   19.0650   10.1390 ca        1 LIG      0.167600
      3  C2        -1.6770   18.4230    8.8910 ca        1 LIG     -0.217000
      4  C3        -2.6930   17.5330    8.5070 cp        1 LIG      0.045000
      5  C4        -3.7740   17.2850    9.3700 ca        1 LIG     -0.224000
      6  C5        -3.8380   17.9280   10.6170 ca        1 LIG      0.154100
      7  C6        -2.6320   16.9200    7.3170 cp        1 LIG     -0.065000
      8  C7        -1.9900   15.6770    7.1990 ca        1 LIG     -0.086000
      9  C8        -1.9260   15.0350    5.9510 ca        1 LIG     -0.166000
     10  C9        -2.5050   15.6360    4.8220 ca        1 LIG     -0.088000
     11 C10        -3.1470   16.8800    4.9390 ca        1 LIG     -0.216000
     12 C11        -3.2110   17.5220    6.1870 ca        1 LIG      0.137100
     13   O        -3.8650   18.7880    6.3070 oh        1 LIG     -0.494100
     14   N        -0.6770   19.9960   10.5420 nh        1 LIG     -0.819200
     15  O1        -4.9370   17.6760   11.4960 oh        1 LIG     -0.502100
     16   H        -2.8680   19.2900   11.9190 ha        1 LIG      0.149000
     17  H1        -0.8840   18.6050    8.2570 ha        1 LIG      0.134000
     18  H2        -4.5200   16.6310    9.0880 ha        1 LIG      0.147000
     19  H3        -1.5650   15.2350    8.0290 ha        1 LIG      0.142000
     20  H4        -1.4530   14.1220    5.8640 ha        1 LIG      0.136000
     21  H5        -2.4590   15.1640    3.9060 ha        1 LIG      0.134000
     22  H6        -3.5710   17.3220    4.1090 ha        1 LIG      0.133000
     23  H7        -4.2510   19.1890    5.5530 ho        1 LIG      0.418000
     24  H8         0.0800   20.1700    9.9370 hn        1 LIG      0.389800
     25  H9        -0.7220   20.4460   11.4170 hn        1 LIG      0.389800
     26 H10        -5.6150   17.0830   11.2400 ho        1 LIG      0.420000
@<TRIPOS>BOND
     1     1     2 ar  
     2     1     6 ar  
     3     1    16 1   
     4     2     3 ar  
     5     2    14 1   
     6     3     4 ar  
     7     3    17 1   
     8     4     5 ar  
     9     4     7 1   
    10     5     6 ar  
    11     5    18 1   
    12     6    15 1   
    13     7     8 ar  
    14     7    12 ar  
    15     8     9 ar  
    16     8    19 1   
    17     9    10 ar  
    18     9    20 1   
    19    10    11 ar  
    20    10    21 1   
    21    11    12 ar  
    22    11    22 1   
    23    12    13 1   
    24    13    23 1   
    25    14    24 1   
    26    14    25 1   
    27    15    26 1   
@<TRIPOS>SUBSTRUCTURE
     1 LIG         1 TEMP              0 ****  ****    0 ROOT
