@<TRIPOS>MOLECULE
SKM
   21    21     1     0     0
SMALL
bcc


@<TRIPOS>ATOM
      1 O12         -0.6730    38.3180    52.5240 oh       401 SKM      -0.608800
      2 C8          -0.5330    37.6530    53.7560 c3       401 SKM       0.094100
      3 C6          -1.7700    37.9590    54.6030 c3       401 SKM       0.149100
      4 O7          -1.6610    37.3740    55.8830 oh       401 SKM      -0.615800
      5 C5          -3.0430    37.4960    53.8540 c3       401 SKM      -0.084200
      6 C4          -2.9290    36.1000    53.2620 ce       401 SKM      -0.121400
      7 C1          -4.1630    35.4280    52.7840 c        401 SKM       0.901800
      8 O2          -4.1990    34.0940    52.6170 o        401 SKM      -0.825800
      9 O3          -5.1680    36.0890    52.5540 o        401 SKM      -0.825800
     10 C10         -1.7330    35.4640    53.1600 c2       401 SKM      -0.274200
     11 C9          -0.4160    36.1200    53.5460 c3       401 SKM       0.154300
     12 O11          0.5910    35.8290    52.6080 oh       401 SKM      -0.629800
     13 H            0.2290    38.3660    52.1120 ho       401 SKM       0.406000
     14 H1           0.3750    38.0340    54.2780 h1       401 SKM       0.027700
     15 H2          -1.8610    39.0540    54.7690 h1       401 SKM       0.064700
     16 H3          -1.7940    36.3950    55.8100 ho       401 SKM       0.412000
     17 H4          -3.8780    37.5300    54.5880 hc       401 SKM       0.079700
     18 H5          -3.2940    38.1910    53.0240 hc       401 SKM       0.079700
     19 H6          -1.6950    34.4530    52.7680 ha       401 SKM       0.148000
     20 H7          -0.1100    35.6260    54.4920 h1       401 SKM       0.053700
     21 H8           0.2570    36.0780    51.7070 ho       401 SKM       0.413000
@<TRIPOS>BOND
     1     1     2 1   
     2     1    13 1   
     3     2     3 1   
     4     2    11 1   
     5     2    14 1   
     6     3     4 1   
     7     3     5 1   
     8     3    15 1   
     9     4    16 1   
    10     5     6 1   
    11     5    17 1   
    12     5    18 1   
    13     6     7 1   
    14     6    10 2   
    15     7     8 1   
    16     7     9 1   
    17    10    11 1   
    18    10    19 1   
    19    11    12 1   
    20    11    20 1   
    21    12    21 1   
@<TRIPOS>SUBSTRUCTURE
     1 SKM         1 TEMP              0 ****  ****    0 ROOT
