REMARK  4 active torsions:
REMARK  status: ('A' for Active; 'I' for Inactive)
REMARK    1  A    between atoms: C07_1  and  C04_17 
REMARK    2  A    between atoms: N01_2  and  C02_15 
REMARK    3  A    between atoms: O01_3  and  C06_19 
REMARK    4  A    between atoms: O02_5  and  C12_9 
ROOT
HETATM    1  C01 UNK     1     -10.116  15.007  17.221  0.00  0.00     0.065 A 
HETATM    2  C02 UNK     1     -10.818  16.223  17.221  0.00  0.00     0.029 A 
HETATM    3  C03 UNK     1     -12.223  16.223  17.221  0.00  0.00     0.041 A 
HETATM    4  C04 UNK     1     -12.925  15.007  17.221  0.00  0.00    -0.018 A 
HETATM    5  C05 UNK     1     -12.223  13.790  17.221  0.00  0.00     0.049 A 
HETATM    6  C06 UNK     1     -10.818  13.790  17.221  0.00  0.00     0.068 A 
ENDROOT
BRANCH   4   7
HETATM    7  C07 UNK     1     -14.265  15.007  17.221  0.00  0.00     0.007 A 
HETATM    8  C08 UNK     1     -14.967  16.223  17.221  0.00  0.00     0.015 A 
HETATM    9  C09 UNK     1     -16.372  16.223  17.221  0.00  0.00     0.001 A 
HETATM   10  C10 UNK     1     -17.074  15.007  17.221  0.00  0.00     0.003 A 
HETATM   11  C11 UNK     1     -16.372  13.790  17.221  0.00  0.00     0.037 A 
HETATM   12  C12 UNK     1     -14.967  13.790  17.221  0.00  0.00     0.076 A 
BRANCH  12  13
HETATM   13  O02 UNK     1     -14.252  12.552  17.221  0.00  0.00    -0.360 OA
HETATM   14  H04 UNK     1     -14.092  12.274  16.316  0.00  0.00     0.217 HD
ENDBRANCH  12  13
ENDBRANCH   4   7
BRANCH   2  15
HETATM   15  N01 UNK     1     -10.083  17.496  17.221  0.00  0.00    -0.399 N 
HETATM   16  H01 UNK     1     -10.588  18.371  17.221  0.00  0.00     0.156 HD
HETATM   17  H02 UNK     1      -9.073  17.496  17.221  0.00  0.00     0.156 HD
ENDBRANCH   2  15
BRANCH   6  18
HETATM   18  O01 UNK     1     -10.103  12.552  17.221  0.00  0.00    -0.361 OA
HETATM   19  H03 UNK     1      -9.943  12.274  16.316  0.00  0.00     0.217 HD
ENDBRANCH   6  18
TORSDOF 4
