MODEL 1
REMARK VINA RESULT:      -5.3      0.000      0.000
REMARK  4 active torsions:
REMARK  status: ('A' for Active; 'I' for Inactive)
REMARK    1  A    between atoms: C07_1  and  C04_17 
REMARK    2  A    between atoms: N01_2  and  C02_15 
REMARK    3  A    between atoms: O01_3  and  C06_19 
REMARK    4  A    between atoms: O02_5  and  C12_9 
ROOT
HETATM    1  C01 UNK     1      -2.821  18.818  11.002  0.00  0.00     0.065 A 
HETATM    2  C02 UNK     1      -1.741  19.065  10.139  0.00  0.00     0.029 A 
HETATM    3  C03 UNK     1      -1.677  18.423   8.891  0.00  0.00     0.041 A 
HETATM    4  C04 UNK     1      -2.693  17.533   8.507  0.00  0.00    -0.018 A 
HETATM    5  C05 UNK     1      -3.774  17.285   9.370  0.00  0.00     0.049 A 
HETATM    6  C06 UNK     1      -3.838  17.928  10.617  0.00  0.00     0.068 A 
ENDROOT
BRANCH   4   7
HETATM    7  C07 UNK     1      -2.632  16.920   7.317  0.00  0.00     0.007 A 
HETATM    8  C08 UNK     1      -1.990  15.677   7.199  0.00  0.00     0.015 A 
HETATM    9  C09 UNK     1      -1.926  15.035   5.951  0.00  0.00     0.001 A 
HETATM   10  C10 UNK     1      -2.505  15.636   4.822  0.00  0.00     0.003 A 
HETATM   11  C11 UNK     1      -3.147  16.880   4.939  0.00  0.00     0.037 A 
HETATM   12  C12 UNK     1      -3.211  17.522   6.187  0.00  0.00     0.076 A 
BRANCH  12  13
HETATM   13  O02 UNK     1      -3.865  18.788   6.307  0.00  0.00    -0.360 OA
HETATM   14  H04 UNK     1      -3.233  19.450   6.597  0.00  0.00     0.217 HD
ENDBRANCH  12  13
ENDBRANCH   4   7
BRANCH   2  15
HETATM   15  N01 UNK     1      -0.677  19.996  10.542  0.00  0.00    -0.399 N 
HETATM   16  H01 UNK     1      -0.636  20.336  11.492  0.00  0.00     0.156 HD
HETATM   17  H02 UNK     1       0.012  20.297   9.868  0.00  0.00     0.156 HD
ENDBRANCH   2  15
BRANCH   6  18
HETATM   18  O01 UNK     1      -4.937  17.676  11.496  0.00  0.00    -0.361 OA
HETATM   19  H03 UNK     1      -4.731  18.010  12.372  0.00  0.00     0.217 HD
ENDBRANCH   6  18
TORSDOF 4
ENDMDL
MODEL 2
REMARK VINA RESULT:      -5.3      1.806      2.200
REMARK  4 active torsions:
REMARK  status: ('A' for Active; 'I' for Inactive)
REMARK    1  A    between atoms: C07_1  and  C04_17 
REMARK    2  A    between atoms: N01_2  and  C02_15 
REMARK    3  A    between atoms: O01_3  and  C06_19 
REMARK    4  A    between atoms: O02_5  and  C12_9 
ROOT
HETATM    1  C01 UNK     1      -2.830  18.801  11.044  0.00  0.00     0.065 A 
HETATM    2  C02 UNK     1      -3.852  17.923  10.648  0.00  0.00     0.029 A 
HETATM    3  C03 UNK     1      -3.785  17.285   9.398  0.00  0.00     0.041 A 
HETATM    4  C04 UNK     1      -2.697  17.525   8.545  0.00  0.00    -0.018 A 
HETATM    5  C05 UNK     1      -1.674  18.403   8.940  0.00  0.00     0.049 A 
HETATM    6  C06 UNK     1      -1.740  19.041  10.190  0.00  0.00     0.068 A 
ENDROOT
BRANCH   4   7
HETATM    7  C07 UNK     1      -2.633  16.916   7.353  0.00  0.00     0.007 A 
HETATM    8  C08 UNK     1      -1.990  15.674   7.232  0.00  0.00     0.015 A 
HETATM    9  C09 UNK     1      -1.924  15.035   5.982  0.00  0.00     0.001 A 
HETATM   10  C10 UNK     1      -2.500  15.640   4.854  0.00  0.00     0.003 A 
HETATM   11  C11 UNK     1      -3.144  16.883   4.974  0.00  0.00     0.037 A 
HETATM   12  C12 UNK     1      -3.210  17.521   6.224  0.00  0.00     0.076 A 
BRANCH  12  13
HETATM   13  O02 UNK     1      -3.865  18.786   6.347  0.00  0.00    -0.360 OA
HETATM   14  H04 UNK     1      -4.246  18.866   7.225  0.00  0.00     0.217 HD
ENDBRANCH  12  13
ENDBRANCH   4   7
BRANCH   2  15
HETATM   15  N01 UNK     1      -4.991  17.672  11.542  0.00  0.00    -0.399 N 
HETATM   16  H01 UNK     1      -5.112  18.230  12.376  0.00  0.00     0.156 HD
HETATM   17  H02 UNK     1      -5.654  16.942  11.323  0.00  0.00     0.156 HD
ENDBRANCH   2  15
BRANCH   6  18
HETATM   18  O01 UNK     1      -0.699  19.935  10.592  0.00  0.00    -0.361 OA
HETATM   19  H03 UNK     1      -0.318  20.353   9.817  0.00  0.00     0.217 HD
ENDBRANCH   6  18
TORSDOF 4
ENDMDL
MODEL 3
REMARK VINA RESULT:      -5.3      2.221      2.674
REMARK  4 active torsions:
REMARK  status: ('A' for Active; 'I' for Inactive)
REMARK    1  A    between atoms: C07_1  and  C04_17 
REMARK    2  A    between atoms: N01_2  and  C02_15 
REMARK    3  A    between atoms: O01_3  and  C06_19 
REMARK    4  A    between atoms: O02_5  and  C12_9 
ROOT
HETATM    1  C01 UNK     1      -5.542  17.646   9.634  0.00  0.00     0.065 A 
HETATM    2  C02 UNK     1      -4.271  17.527  10.219  0.00  0.00     0.029 A 
HETATM    3  C03 UNK     1      -3.149  17.270   9.414  0.00  0.00     0.041 A 
HETATM    4  C04 UNK     1      -3.298  17.133   8.024  0.00  0.00    -0.018 A 
HETATM    5  C05 UNK     1      -4.570  17.251   7.439  0.00  0.00     0.049 A 
HETATM    6  C06 UNK     1      -5.692  17.508   8.244  0.00  0.00     0.068 A 
ENDROOT
BRANCH   4   7
HETATM    7  C07 UNK     1      -2.228  16.888   7.257  0.00  0.00     0.007 A 
HETATM    8  C08 UNK     1      -2.043  15.614   6.696  0.00  0.00     0.015 A 
HETATM    9  C09 UNK     1      -0.920  15.357   5.890  0.00  0.00     0.001 A 
HETATM   10  C10 UNK     1       0.016  16.374   5.647  0.00  0.00     0.003 A 
HETATM   11  C11 UNK     1      -0.168  17.649   6.208  0.00  0.00     0.037 A 
HETATM   12  C12 UNK     1      -1.291  17.906   7.013  0.00  0.00     0.076 A 
BRANCH  12  13
HETATM   13  O02 UNK     1      -1.479  19.203   7.584  0.00  0.00    -0.360 OA
HETATM   14  H04 UNK     1      -2.418  19.385   7.662  0.00  0.00     0.217 HD
ENDBRANCH  12  13
ENDBRANCH   4   7
BRANCH   2  15
HETATM   15  N01 UNK     1      -4.115  17.672  11.673  0.00  0.00    -0.399 N 
HETATM   16  H01 UNK     1      -3.275  17.340  12.127  0.00  0.00     0.156 HD
HETATM   17  H02 UNK     1      -4.847  18.103  12.220  0.00  0.00     0.156 HD
ENDBRANCH   2  15
BRANCH   6  18
HETATM   18  O01 UNK     1      -6.986  17.629   7.649  0.00  0.00    -0.361 OA
HETATM   19  H03 UNK     1      -6.895  17.710   6.697  0.00  0.00     0.217 HD
ENDBRANCH   6  18
TORSDOF 4
ENDMDL
MODEL 4
REMARK VINA RESULT:      -5.1      2.991      3.601
REMARK  4 active torsions:
REMARK  status: ('A' for Active; 'I' for Inactive)
REMARK    1  A    between atoms: C07_1  and  C04_17 
REMARK    2  A    between atoms: N01_2  and  C02_15 
REMARK    3  A    between atoms: O01_3  and  C06_19 
REMARK    4  A    between atoms: O02_5  and  C12_9 
ROOT
HETATM    1  C01 UNK     1      -5.837  19.607   8.655  0.00  0.00     0.065 A 
HETATM    2  C02 UNK     1      -6.304  18.334   8.291  0.00  0.00     0.029 A 
HETATM    3  C03 UNK     1      -5.467  17.454   7.585  0.00  0.00     0.041 A 
HETATM    4  C04 UNK     1      -4.163  17.847   7.244  0.00  0.00    -0.018 A 
HETATM    5  C05 UNK     1      -3.695  19.121   7.608  0.00  0.00     0.049 A 
HETATM    6  C06 UNK     1      -4.533  20.002   8.313  0.00  0.00     0.068 A 
ENDROOT
BRANCH   4   7
HETATM    7  C07 UNK     1      -3.365  17.008   6.571  0.00  0.00     0.007 A 
HETATM    8  C08 UNK     1      -3.467  16.910   5.174  0.00  0.00     0.015 A 
HETATM    9  C09 UNK     1      -2.629  16.030   4.468  0.00  0.00     0.001 A 
HETATM   10  C10 UNK     1      -1.691  15.248   5.160  0.00  0.00     0.003 A 
HETATM   11  C11 UNK     1      -1.589  15.345   6.558  0.00  0.00     0.037 A 
HETATM   12  C12 UNK     1      -2.426  16.225   7.264  0.00  0.00     0.076 A 
BRANCH  12  13
HETATM   13  O02 UNK     1      -2.322  16.325   8.686  0.00  0.00    -0.360 OA
HETATM   14  H04 UNK     1      -2.137  15.458   9.055  0.00  0.00     0.217 HD
ENDBRANCH  12  13
ENDBRANCH   4   7
BRANCH   2  15
HETATM   15  N01 UNK     1      -7.669  17.922   8.649  0.00  0.00    -0.399 N 
HETATM   16  H01 UNK     1      -8.463  18.414   8.262  0.00  0.00     0.156 HD
HETATM   17  H02 UNK     1      -7.814  17.148   9.281  0.00  0.00     0.156 HD
ENDBRANCH   2  15
BRANCH   6  18
HETATM   18  O01 UNK     1      -4.057  21.298   8.684  0.00  0.00    -0.361 OA
HETATM   19  H03 UNK     1      -4.790  21.829   9.004  0.00  0.00     0.217 HD
ENDBRANCH   6  18
TORSDOF 4
ENDMDL
MODEL 5
REMARK VINA RESULT:      -5.1      2.573      2.970
REMARK  4 active torsions:
REMARK  status: ('A' for Active; 'I' for Inactive)
REMARK    1  A    between atoms: C07_1  and  C04_17 
REMARK    2  A    between atoms: N01_2  and  C02_15 
REMARK    3  A    between atoms: O01_3  and  C06_19 
REMARK    4  A    between atoms: O02_5  and  C12_9 
ROOT
HETATM    1  C01 UNK     1      -6.013  19.521   8.624  0.00  0.00     0.065 A 
HETATM    2  C02 UNK     1      -4.719  19.965   8.306  0.00  0.00     0.029 A 
HETATM    3  C03 UNK     1      -3.844  19.126   7.596  0.00  0.00     0.041 A 
HETATM    4  C04 UNK     1      -4.263  17.844   7.205  0.00  0.00    -0.018 A 
HETATM    5  C05 UNK     1      -5.557  17.400   7.523  0.00  0.00     0.049 A 
HETATM    6  C06 UNK     1      -6.432  18.239   8.233  0.00  0.00     0.068 A 
ENDROOT
BRANCH   4   7
HETATM    7  C07 UNK     1      -3.427  17.044   6.528  0.00  0.00     0.007 A 
HETATM    8  C08 UNK     1      -3.503  16.974   5.128  0.00  0.00     0.015 A 
HETATM    9  C09 UNK     1      -2.628  16.135   4.418  0.00  0.00     0.001 A 
HETATM   10  C10 UNK     1      -1.677  15.367   5.109  0.00  0.00     0.003 A 
HETATM   11  C11 UNK     1      -1.601  15.437   6.510  0.00  0.00     0.037 A 
HETATM   12  C12 UNK     1      -2.476  16.275   7.220  0.00  0.00     0.076 A 
BRANCH  12  13
HETATM   13  O02 UNK     1      -2.400  16.347   8.646  0.00  0.00    -0.360 OA
HETATM   14  H04 UNK     1      -2.548  17.252   8.930  0.00  0.00     0.217 HD
ENDBRANCH  12  13
ENDBRANCH   4   7
BRANCH   2  15
HETATM   15  N01 UNK     1      -4.281  21.307   8.715  0.00  0.00    -0.399 N 
HETATM   16  H01 UNK     1      -3.450  21.713   8.308  0.00  0.00     0.156 HD
HETATM   17  H02 UNK     1      -4.810  21.823   9.403  0.00  0.00     0.156 HD
ENDBRANCH   2  15
BRANCH   6  18
HETATM   18  O01 UNK     1      -7.750  17.787   8.557  0.00  0.00    -0.361 OA
HETATM   19  H03 UNK     1      -8.122  18.349   9.240  0.00  0.00     0.217 HD
ENDBRANCH   6  18
TORSDOF 4
ENDMDL
MODEL 6
REMARK VINA RESULT:      -5.1      3.119      4.823
REMARK  4 active torsions:
REMARK  status: ('A' for Active; 'I' for Inactive)
REMARK    1  A    between atoms: C07_1  and  C04_17 
REMARK    2  A    between atoms: N01_2  and  C02_15 
REMARK    3  A    between atoms: O01_3  and  C06_19 
REMARK    4  A    between atoms: O02_5  and  C12_9 
ROOT
HETATM    1  C01 UNK     1      -0.791  17.304   5.843  0.00  0.00     0.065 A 
HETATM    2  C02 UNK     1      -2.006  17.027   5.197  0.00  0.00     0.029 A 
HETATM    3  C03 UNK     1      -3.223  17.351   5.821  0.00  0.00     0.041 A 
HETATM    4  C04 UNK     1      -3.223  17.952   7.090  0.00  0.00    -0.018 A 
HETATM    5  C05 UNK     1      -2.007  18.229   7.736  0.00  0.00     0.049 A 
HETATM    6  C06 UNK     1      -0.791  17.905   7.113  0.00  0.00     0.068 A 
ENDROOT
BRANCH   4   7
HETATM    7  C07 UNK     1      -4.384  18.261   7.684  0.00  0.00     0.007 A 
HETATM    8  C08 UNK     1      -5.092  17.279   8.395  0.00  0.00     0.015 A 
HETATM    9  C09 UNK     1      -6.308  17.603   9.019  0.00  0.00     0.001 A 
HETATM   10  C10 UNK     1      -6.816  18.909   8.931  0.00  0.00     0.003 A 
HETATM   11  C11 UNK     1      -6.108  19.892   8.220  0.00  0.00     0.037 A 
HETATM   12  C12 UNK     1      -4.891  19.568   7.596  0.00  0.00     0.076 A 
BRANCH  12  13
HETATM   13  O02 UNK     1      -4.170  20.568   6.873  0.00  0.00    -0.360 OA
HETATM   14  H04 UNK     1      -4.184  21.392   7.365  0.00  0.00     0.217 HD
ENDBRANCH  12  13
ENDBRANCH   4   7
BRANCH   2  15
HETATM   15  N01 UNK     1      -2.006  16.398   3.868  0.00  0.00    -0.399 N 
HETATM   16  H01 UNK     1      -1.372  16.727   3.154  0.00  0.00     0.156 HD
HETATM   17  H02 UNK     1      -2.640  15.637   3.670  0.00  0.00     0.156 HD
ENDBRANCH   2  15
BRANCH   6  18
HETATM   18  O01 UNK     1       0.447  18.187   7.770  0.00  0.00    -0.361 OA
HETATM   19  H03 UNK     1       0.757  17.398   8.222  0.00  0.00     0.217 HD
ENDBRANCH   6  18
TORSDOF 4
ENDMDL
MODEL 7
REMARK VINA RESULT:      -5.0     14.826     15.733
REMARK  4 active torsions:
REMARK  status: ('A' for Active; 'I' for Inactive)
REMARK    1  A    between atoms: C07_1  and  C04_17 
REMARK    2  A    between atoms: N01_2  and  C02_15 
REMARK    3  A    between atoms: O01_3  and  C06_19 
REMARK    4  A    between atoms: O02_5  and  C12_9 
ROOT
HETATM    1  C01 UNK     1      -6.185  19.933  23.368  0.00  0.00     0.065 A 
HETATM    2  C02 UNK     1      -6.361  18.642  22.843  0.00  0.00     0.029 A 
HETATM    3  C03 UNK     1      -5.284  17.740  22.819  0.00  0.00     0.041 A 
HETATM    4  C04 UNK     1      -4.031  18.129  23.320  0.00  0.00    -0.018 A 
HETATM    5  C05 UNK     1      -3.854  19.420  23.845  0.00  0.00     0.049 A 
HETATM    6  C06 UNK     1      -4.931  20.322  23.869  0.00  0.00     0.068 A 
ENDROOT
BRANCH   4   7
HETATM    7  C07 UNK     1      -3.004  17.269  23.297  0.00  0.00     0.007 A 
HETATM    8  C08 UNK     1      -1.957  17.451  22.379  0.00  0.00     0.015 A 
HETATM    9  C09 UNK     1      -0.880  16.549  22.355  0.00  0.00     0.001 A 
HETATM   10  C10 UNK     1      -0.851  15.466  23.249  0.00  0.00     0.003 A 
HETATM   11  C11 UNK     1      -1.898  15.284  24.167  0.00  0.00     0.037 A 
HETATM   12  C12 UNK     1      -2.976  16.186  24.191  0.00  0.00     0.076 A 
BRANCH  12  13
HETATM   13  O02 UNK     1      -4.042  16.001  25.125  0.00  0.00    -0.360 OA
HETATM   14  H04 UNK     1      -3.753  15.418  25.831  0.00  0.00     0.217 HD
ENDBRANCH  12  13
ENDBRANCH   4   7
BRANCH   2  15
HETATM   15  N01 UNK     1      -7.673  18.235  22.319  0.00  0.00    -0.399 N 
HETATM   16  H01 UNK     1      -8.025  18.644  21.465  0.00  0.00     0.156 HD
HETATM   17  H02 UNK     1      -8.222  17.546  22.813  0.00  0.00     0.156 HD
ENDBRANCH   2  15
BRANCH   6  18
HETATM   18  O01 UNK     1      -4.752  21.636  24.403  0.00  0.00    -0.361 OA
HETATM   19  H03 UNK     1      -5.058  21.657  25.313  0.00  0.00     0.217 HD
ENDBRANCH   6  18
TORSDOF 4
ENDMDL
MODEL 8
REMARK VINA RESULT:      -5.0     13.999     15.817
REMARK  4 active torsions:
REMARK  status: ('A' for Active; 'I' for Inactive)
REMARK    1  A    between atoms: C07_1  and  C04_17 
REMARK    2  A    between atoms: N01_2  and  C02_15 
REMARK    3  A    between atoms: O01_3  and  C06_19 
REMARK    4  A    between atoms: O02_5  and  C12_9 
ROOT
HETATM    1  C01 UNK     1      -9.143  23.334  23.206  0.00  0.00     0.065 A 
HETATM    2  C02 UNK     1      -7.824  23.025  22.834  0.00  0.00     0.029 A 
HETATM    3  C03 UNK     1      -7.455  21.690  22.601  0.00  0.00     0.041 A 
HETATM    4  C04 UNK     1      -8.405  20.664  22.739  0.00  0.00    -0.018 A 
HETATM    5  C05 UNK     1      -9.724  20.973  23.111  0.00  0.00     0.049 A 
HETATM    6  C06 UNK     1     -10.093  22.309  23.344  0.00  0.00     0.068 A 
ENDROOT
BRANCH   4   7
HETATM    7  C07 UNK     1      -8.053  19.391  22.516  0.00  0.00     0.007 A 
HETATM    8  C08 UNK     1      -7.643  18.578  23.585  0.00  0.00     0.015 A 
HETATM    9  C09 UNK     1      -7.274  17.243  23.352  0.00  0.00     0.001 A 
HETATM   10  C10 UNK     1      -7.315  16.721  22.049  0.00  0.00     0.003 A 
HETATM   11  C11 UNK     1      -7.725  17.534  20.978  0.00  0.00     0.037 A 
HETATM   12  C12 UNK     1      -8.094  18.869  21.212  0.00  0.00     0.076 A 
BRANCH  12  13
HETATM   13  O02 UNK     1      -8.511  19.697  20.123  0.00  0.00    -0.360 OA
HETATM   14  H04 UNK     1      -8.280  19.274  19.293  0.00  0.00     0.217 HD
ENDBRANCH  12  13
ENDBRANCH   4   7
BRANCH   2  15
HETATM   15  N01 UNK     1      -6.831  24.098  22.690  0.00  0.00    -0.399 N 
HETATM   16  H01 UNK     1      -6.059  24.163  23.338  0.00  0.00     0.156 HD
HETATM   17  H02 UNK     1      -6.919  24.771  21.942  0.00  0.00     0.156 HD
ENDBRANCH   2  15
BRANCH   6  18
HETATM   18  O01 UNK     1     -11.435  22.624  23.723  0.00  0.00    -0.361 OA
HETATM   19  H03 UNK     1     -12.031  21.955  23.377  0.00  0.00     0.217 HD
ENDBRANCH   6  18
TORSDOF 4
ENDMDL
MODEL 9
REMARK VINA RESULT:      -4.9     18.666     20.409
REMARK  4 active torsions:
REMARK  status: ('A' for Active; 'I' for Inactive)
REMARK    1  A    between atoms: C07_1  and  C04_17 
REMARK    2  A    between atoms: N01_2  and  C02_15 
REMARK    3  A    between atoms: O01_3  and  C06_19 
REMARK    4  A    between atoms: O02_5  and  C12_9 
ROOT
HETATM    1  C01 UNK     1     -15.442  21.073  22.545  0.00  0.00     0.065 A 
HETATM    2  C02 UNK     1     -14.230  21.508  21.986  0.00  0.00     0.029 A 
HETATM    3  C03 UNK     1     -13.731  22.784  22.296  0.00  0.00     0.041 A 
HETATM    4  C04 UNK     1     -14.446  23.625  23.164  0.00  0.00    -0.018 A 
HETATM    5  C05 UNK     1     -15.659  23.190  23.723  0.00  0.00     0.049 A 
HETATM    6  C06 UNK     1     -16.158  21.914  23.413  0.00  0.00     0.068 A 
ENDROOT
BRANCH   4   7
HETATM    7  C07 UNK     1     -13.971  24.842  23.459  0.00  0.00     0.007 A 
HETATM    8  C08 UNK     1     -13.162  25.024  24.593  0.00  0.00     0.015 A 
HETATM    9  C09 UNK     1     -12.664  26.301  24.903  0.00  0.00     0.001 A 
HETATM   10  C10 UNK     1     -12.974  27.395  24.079  0.00  0.00     0.003 A 
HETATM   11  C11 UNK     1     -13.783  27.213  22.944  0.00  0.00     0.037 A 
HETATM   12  C12 UNK     1     -14.282  25.937  22.635  0.00  0.00     0.076 A 
BRANCH  12  13
HETATM   13  O02 UNK     1     -15.105  25.751  21.481  0.00  0.00    -0.360 OA
HETATM   14  H04 UNK     1     -15.786  25.103  21.673  0.00  0.00     0.217 HD
ENDBRANCH  12  13
ENDBRANCH   4   7
BRANCH   2  15
HETATM   15  N01 UNK     1     -13.482  20.627  21.077  0.00  0.00    -0.399 N 
HETATM   16  H01 UNK     1     -12.849  19.935  21.451  0.00  0.00     0.156 HD
HETATM   17  H02 UNK     1     -13.601  20.715  20.078  0.00  0.00     0.156 HD
ENDBRANCH   2  15
BRANCH   6  18
HETATM   18  O01 UNK     1     -17.392  21.470  23.982  0.00  0.00    -0.361 OA
HETATM   19  H03 UNK     1     -17.221  20.763  24.608  0.00  0.00     0.217 HD
ENDBRANCH   6  18
TORSDOF 4
ENDMDL
MODEL 10
REMARK VINA RESULT:      -4.8      2.584      4.674
REMARK  4 active torsions:
REMARK  status: ('A' for Active; 'I' for Inactive)
REMARK    1  A    between atoms: C07_1  and  C04_17 
REMARK    2  A    between atoms: N01_2  and  C02_15 
REMARK    3  A    between atoms: O01_3  and  C06_19 
REMARK    4  A    between atoms: O02_5  and  C12_9 
ROOT
HETATM    1  C01 UNK     1      -1.246  17.945   7.176  0.00  0.00     0.065 A 
HETATM    2  C02 UNK     1      -1.909  16.707   7.179  0.00  0.00     0.029 A 
HETATM    3  C03 UNK     1      -3.086  16.542   7.927  0.00  0.00     0.041 A 
HETATM    4  C04 UNK     1      -3.600  17.615   8.672  0.00  0.00    -0.018 A 
HETATM    5  C05 UNK     1      -2.937  18.854   8.670  0.00  0.00     0.049 A 
HETATM    6  C06 UNK     1      -1.759  19.019   7.922  0.00  0.00     0.068 A 
ENDROOT
BRANCH   4   7
HETATM    7  C07 UNK     1      -4.723  17.458   9.386  0.00  0.00     0.007 A 
HETATM    8  C08 UNK     1      -4.653  17.292  10.779  0.00  0.00     0.015 A 
HETATM    9  C09 UNK     1      -5.830  17.127  11.527  0.00  0.00     0.001 A 
HETATM   10  C10 UNK     1      -7.078  17.129  10.882  0.00  0.00     0.003 A 
HETATM   11  C11 UNK     1      -7.149  17.296   9.489  0.00  0.00     0.037 A 
HETATM   12  C12 UNK     1      -5.971  17.461   8.741  0.00  0.00     0.076 A 
BRANCH  12  13
HETATM   13  O02 UNK     1      -6.043  17.630   7.323  0.00  0.00    -0.360 OA
HETATM   14  H04 UNK     1      -5.244  18.062   7.011  0.00  0.00     0.217 HD
ENDBRANCH  12  13
ENDBRANCH   4   7
BRANCH   2  15
HETATM   15  N01 UNK     1      -1.371  15.583   6.398  0.00  0.00    -0.399 N 
HETATM   16  H01 UNK     1      -1.512  14.634   6.715  0.00  0.00     0.156 HD
HETATM   17  H02 UNK     1      -0.860  15.760   5.545  0.00  0.00     0.156 HD
ENDBRANCH   2  15
BRANCH   6  18
HETATM   18  O01 UNK     1      -1.084  20.279   7.919  0.00  0.00    -0.361 OA
HETATM   19  H03 UNK     1      -0.299  20.221   7.370  0.00  0.00     0.217 HD
ENDBRANCH   6  18
TORSDOF 4
ENDMDL
